20
#
Ti		-1.564845		0.0		1.351425		
Ti		1.564845		0.0		1.351425		
Ti		0.0		1.597333		-0.981597		
Ti		0.0		-1.597333		-0.981597		
O		0.0		0.0		2.287505		
O		1.47572		-1.372257		0.339461		
O		1.47572		1.372257		0.339461		
O		-1.47572		-1.372257		0.339461		
O		-1.47572		1.372257		0.339461		
O		0.0		0.0		-1.882417		
O		0.0		2.927626		-1.898493		
O		0.0		-2.927626		-1.898493		
H		0.198975		0.7980449		2.7795048		
H		2.2110278		-1.6071501		-0.2285868		
H		0.7162061		1.5100648		-0.2285868		
H		-0.7162061		-1.5100648		-0.2285868		
H		-2.2110278		1.6071501		-0.2285868		
H		0.8100023		-0.2019563		-2.3532042		
H		-0.7656787		3.1185311		-2.4423882		
H		0.7656787		-3.1185311		-2.4423882		
