17
#
 Ti            0.00000024           0.00000024          -2.95900022
 Ti            0.00000024           0.00000024          -0.00000022
 Ti            0.00000024           0.00000024           2.95900078
  O            1.40576324           1.40576324          -2.95900022
  O            1.40576324           1.40576324          -0.00000022
  O            1.40576324           1.40576324           2.95900078
  O           -1.40576376          -1.40576376          -2.95900022
  O           -1.40576376          -1.40576376          -0.00000022
  O           -1.40576376          -1.40576376           2.95900078
  O            0.89123624          -0.89123676          -4.43850022
  O            0.89123624          -0.89123676          -1.47950022
  O            0.89123624          -0.89123676           1.47949978
  O            0.89123624          -0.89123676           4.43850078
  O           -0.89123676           0.89123624          -4.43850022
  O           -0.89123676           0.89123624          -1.47950022
  O           -0.89123676           0.89123624           1.47949978
  O           -0.89123676           0.89123624           4.43850078
