33
12121211011012
Ti		2.4e-07		2.4e-07		-2.95900022		
Ti		2.4e-07		2.4e-07		-2.2e-07		
Ti		2.4e-07		2.4e-07		2.95900078		
O		1.40576324		1.40576324		-2.95900022		
O		1.40576324		1.40576324		-2.2e-07		
O		1.40576324		1.40576324		2.95900078		
O		-1.40576376		-1.40576376		-2.95900022		
O		-1.40576376		-1.40576376		-2.2e-07		
O		-1.40576376		-1.40576376		2.95900078		
O		0.89123624		-0.89123676		-4.43850022		
O		0.89123624		-0.89123676		-1.47950022		
O		0.89123624		-0.89123676		1.47949978		
O		0.89123624		-0.89123676		4.43850078		
O		-0.89123676		0.89123624		-4.43850022		
O		-0.89123676		0.89123624		-1.47950022		
O		-0.89123676		0.89123624		1.47949978		
O		-0.89123676		0.89123624		4.43850078		
H		1.44252304		1.97485984		-3.72926532		
H		1.44252304		1.97485984		-0.77026532		
H		1.51949214		1.89789074		0.81449768		
H		1.44252304		1.97485984		2.18873568		
H		-1.44252356		-1.97486036		-2.18873512		
H		-1.51949266		-1.89789126		-3.77349812		
H		-1.44252356		-1.97486036		0.77026488		
H		-1.44252356		-1.97486036		3.72926588		
H		-1.51949266		-1.89789126		2.14450288		
H		0.43749164		-1.55971236		-4.95404532		
H		1.56892699889		-1.56892827929		-1.47950022		
H		1.79600954		-1.16456686		4.27973518		
H		-1.79601006		1.16456594		-4.27973402		
H		-1.56892827929		1.56892699889		1.4794993998		
H		-0.43749216		1.55971144		4.95404648		
H		-1.76129236		1.27729374		4.32672708		
